Test_PropertyDump.Txt
NumBuses= 2
NumNodes= 7
NumDevices= 3
BusList:
  b1           (3 Nodes) 1 2 3
  b2           (4 Nodes) 1 2 3 4
DeviceList:
  source      
  line1       
  load2       
NodeToBus Array:
   1  1 (=b1.1)
   2  1 (=b1.2)
   3  1 (=b1.3)
   4  2 (=b2.1)
   5  2 (=b2.2)
   6  2 (=b2.3)
   7  2 (=b2.4)

New Vsource.source
! ENABLED
! NPhases = 3
! Nconds = 3
! Nterms = 2
! Yorder = 6
! NodeRef = "1 2 3 0 0 0 "
! Terminal Status: [C C C C C C ]
! Terminal Bus Ref: [1 1 1 1 1 1 ]

! YPrim (G matrix)
!  1.668079689E10 |    1522320323 |    1522320323 | -1.668079689E10 |   -1522320323 |   -1522320323 |
!     1522320323 | 1.668079689E10 |    1522320323 |   -1522320323 | -1.668079689E10 |   -1522320323 |
!     1522320323 |    1522320323 | 1.668079689E10 |   -1522320323 |   -1522320323 | -1.668079689E10 |
!  -1.668079689E10 |   -1522320323 |   -1522320323 | 1.668079689E10 |    1522320323 |    1522320323 |
!    -1522320323 | -1.668079689E10 |   -1522320323 |    1522320323 | 1.668079689E10 |    1522320323 |
!    -1522320323 |   -1522320323 | -1.668079689E10 |    1522320323 |    1522320323 | 1.668079689E10 |
! YPrim (B Matrix) = 
!  -6.014804171E10 |     485864553 |     485864553 | 6.014804171E10 |    -485864553 |    -485864553 |
!      485864553 | -6.014804171E10 |     485864553 |    -485864553 | 6.014804171E10 |    -485864553 |
!      485864553 |     485864553 | -6.014804171E10 |    -485864553 |    -485864553 | 6.014804171E10 |
!  6.014804171E10 |    -485864553 |    -485864553 | -6.014804171E10 |     485864553 |     485864553 |
!     -485864553 | 6.014804171E10 |    -485864553 |     485864553 | -6.014804171E10 |     485864553 |
!     -485864553 |    -485864553 | 6.014804171E10 |     485864553 |     485864553 | -6.014804171E10 |
! VARIABLES
~ bus1=b1
~ basekv=0.4
~ pu=1
~ angle=0
~ frequency=60
~ phases=3
~ MVAsc3=1E10
~ MVAsc1=1E10
~ x1r1=4
~ x0r0=3
~ Isc3=1.4434E13
~ Isc1=1.4434E13
~ R1=3.8806E-12
~ X1=1.5522E-11
~ R0=5.0696E-12
~ X0=1.5209E-11
~ ScanType=Pos
~ Sequence=Pos
~ bus2=b1.0.0.0
~ Z1=[3.88057E-12, 1.552228E-11]
~ Z0=[5.069596E-12, 1.5208788E-11]
~ Z2=[3.88057E-12, 1.552228E-11]
~ puZ1=[2.4253563E-11, 9.701425E-11]
~ puZ0=[3.1684975E-11, 9.5054926E-11]
~ puZ2=[2.4253563E-11, 9.701425E-11]
~ baseMVA=1
~ Yearly=
~ Daily=
~ Duty=
~ Model=Thevenin
~ puZideal=[1E-6, 0.001]
~ spectrum=defaultvsource
~ basefreq=60
~ enabled=true
~ like=

BaseFrequency=60.0
VMag=230.94
Z Matrix=
4.276912E-12 +j 1.5417783E-11 
3.9634201E-13 +j -1.0449729E-13 4.276912E-12 +j 1.5417783E-11 
3.9634201E-13 +j -1.0449729E-13 3.9634201E-13 +j -1.0449729E-13 4.276912E-12 +j 1.5417783E-11 

New Line.line1
! ENABLED
! NPhases = 4
! Nconds = 4
! Nterms = 2
! Yorder = 8
! NodeRef = "1 2 3 0 4 5 6 7 "
! Terminal Status: [C C C C C C C C ]
! Terminal Bus Ref: [1 1 1 1 2 2 2 2 ]

! YPrim (G matrix)
!   0.7309162407 |   -0.39993728 | -0.1355177565 | -0.1043718895 | -0.7309162407 |    0.39993728 |  0.1355177565 |  0.1043718895 |
!    -0.39993728 |      0.845703 |  -0.261544394 | -0.1355177565 |    0.39993728 |     -0.845703 |   0.261544394 |  0.1355177565 |
!  -0.1355177565 |  -0.261544394 |      0.845703 |   -0.39993728 |  0.1355177565 |   0.261544394 |     -0.845703 |    0.39993728 |
!  -0.1043718895 | -0.1355177565 |   -0.39993728 |  0.7309162407 |  0.1043718895 |  0.1355177565 |    0.39993728 | -0.7309162407 |
!  -0.7309162407 |    0.39993728 |  0.1355177565 |  0.1043718895 |  0.7309162407 |   -0.39993728 | -0.1355177565 | -0.1043718895 |
!     0.39993728 |     -0.845703 |   0.261544394 |  0.1355177565 |   -0.39993728 |      0.845703 |  -0.261544394 | -0.1355177565 |
!   0.1355177565 |   0.261544394 |     -0.845703 |    0.39993728 | -0.1355177565 |  -0.261544394 |      0.845703 |   -0.39993728 |
!   0.1043718895 |  0.1355177565 |    0.39993728 | -0.7309162407 | -0.1043718895 | -0.1355177565 |   -0.39993728 |  0.7309162407 |
! YPrim (B Matrix) = 
!   -1.720425751 |  0.6059360221 |  0.3607092621 |  0.3153033681 |   1.720425751 | -0.6059360221 | -0.3607092621 | -0.3153033681 |
!   0.6059360221 |  -1.816964473 |  0.4709838783 |  0.3607092621 | -0.6059360221 |   1.816964473 | -0.4709838783 | -0.3607092621 |
!   0.3607092621 |  0.4709838783 |  -1.816964473 |  0.6059360221 | -0.3607092621 | -0.4709838783 |   1.816964473 | -0.6059360221 |
!   0.3153033681 |  0.3607092621 |  0.6059360221 |  -1.720425751 | -0.3153033681 | -0.3607092621 | -0.6059360221 |   1.720425751 |
!    1.720425751 | -0.6059360221 | -0.3607092621 | -0.3153033681 |  -1.720425751 |  0.6059360221 |  0.3607092621 |  0.3153033681 |
!  -0.6059360221 |   1.816964473 | -0.4709838783 | -0.3607092621 |  0.6059360221 |  -1.816964473 |  0.4709838783 |  0.3607092621 |
!  -0.3607092621 | -0.4709838783 |   1.816964473 | -0.6059360221 |  0.3607092621 |  0.4709838783 |  -1.816964473 |  0.6059360221 |
!  -0.3153033681 | -0.3607092621 | -0.6059360221 |   1.720425751 |  0.3153033681 |  0.3607092621 |  0.6059360221 |  -1.720425751 |
~ bus1=b1.1.2.3.0
~ bus2=b2.1.2.3.4
~ linecode=zabcn
~ length=1.000
~ phases=4
~ r1=----
~ x1=----
~ r0=----
~ x0=----
~ C1=----
~ C0=----
~ rmatrix="0.227217624 0.059217624 0.059217624 0.059217624 |0.059217624 0.227217624 0.059217624 0.059217624 |0.059217624 0.059217624 0.227217624 0.059217624 |0.059217624 0.059217624 0.059217624 0.227217624 |"
~ xmatrix="0.879326005 0.541069709 0.475545802 0.449141163 |0.541069709 0.879326005 0.516533439 0.475545802 |0.475545802 0.516533439 0.879326005 0.541069709 |0.449141163 0.475545802 0.541069709 0.879326005 |"
~ cmatrix="0.000 0.000 0.000 0.000 |0.000 0.000 0.000 0.000 |0.000 0.000 0.000 0.000 |0.000 0.000 0.000 0.000 |"
~ Switch=false
~ Rg=0
~ Xg=0
~ rho=100
~ geometry=
~ units=km
~ spacing=
~ wires=
~ EarthModel=Deri
~ cncables=
~ tscables=
~ B1=----
~ B0=----
~ Seasons=1
~ Ratings=[400,]
~ LineType=oh
~ normamps=400
~ emergamps=600
~ faultrate=0.10000000000000001
~ pctperm=20
~ repair=3
~ basefreq=60
~ enabled=true
~ like=

New Load.load2
! ENABLED
! NPhases = 3
! Nconds = 4
! Nterms = 1
! Yorder = 4
! NodeRef = "5 4 6 7 "
! Terminal Status: [C C C C ]
! Terminal Bus Ref: [2 2 2 2 ]

! YPrim (G matrix)
!        0.05625 |             0 |             0 |      -0.05625 |
!              0 |       0.05625 |             0 |      -0.05625 |
!              0 |             0 |       0.05625 |      -0.05625 |
!       -0.05625 |      -0.05625 |      -0.05625 |  0.1687501687 |
! YPrim (B Matrix) = 
!  -0.0272431184 |             0 |             0 |  0.0272431184 |
!              0 | -0.0272431184 |             0 |  0.0272431184 |
!              0 |             0 | -0.0272431184 |  0.0272431184 |
!   0.0272431184 |  0.0272431184 |  0.0272431184 | -0.08172943692 |
! VARIABLES
~ phases=3
~ bus1=b2.2.1.3.4
~ kV=0.40000000000000002
~ kW=     9.0
~ pf=0.900
~ model=1
~ yearly=
~ daily=
~ duty=
~ growth=
~ conn=wye
~ kvar=     4.4
~ Rneut=-1
~ Xneut=0
~ status=variable
~ class=1
~ Vminpu=0.1
~ Vmaxpu=2
~ Vminnorm=0.0
~ Vminemerg=0.0
~ xfkVA=0.0
~ allocationfactor=0.500
~ kVA=    10.0
~ %mean=50
~ %stddev=10
~ CVRwatts=1
~ CVRvars=2
~ kwh=0
~ kwhdays=30
~ Cfactor=4
~ CVRcurve=
~ NumCust=1
~ ZIPV="
~ %SeriesRL=    50.0
~ RelWeight=1
~ Vlowpu=0.5
~ puXharm=0
~ XRharm=6
~ spectrum=defaultload
~ basefreq=60
~ enabled=true
~ like=

New LoadShape.default
~ npts=24
~ interval=1
~ mult=[ 0.677 0.6256 0.6087 0.5833 0.58028 0.6025 0.657 0.7477 0.832 0.88 0.94 0.989 0.985 0.98 0.9898 0.999 1 0.958 0.936 0.913 0.876 0.876 0.828 0.756]
~ hour=
~ mean=0.82582833
~ stddev=0.15309161
~ csvfile=
~ sngfile=
~ dblfile=
~ action=
~ qmult=
~ UseActual=No
~ Pmax=1
~ Qmax=0
~ sinterval=3600
~ minterval=60
~ Pbase=0
~ Qbase=0
~ Pmult=[ 0.677 0.6256 0.6087 0.5833 0.58028 0.6025 0.657 0.7477 0.832 0.88 0.94 0.989 0.985 0.98 0.9898 0.999 1 0.958 0.936 0.913 0.876 0.876 0.828 0.756]
~ PQCSVFile=
~ like=

New GrowthShape.default
~ npts=2
~ year=((1, 20, ))
~ mult=((1.0249999999999999, 1.0249999999999999, ))
~ csvfile=
~ sngfile=
~ dblfile=
~ like=

New Spectrum.default
~ NumHarm=7
~ harmonic=(1, 3, 5, 7, 9, 11, 13, )
~ %mag=(100, 33, 20, 14.000000000000002, 11, 9, 7.0000000000000009, )
~ angle=(0, 0, 0, 0, 0, 0, 0, )
~ CSVFile=
~ like=
Multiplier Array:
Harmonic, Mult.re, Mult.im, Mag,  Angle
1, 1, 0, 1, 0
3, 0.33000000000000002, 0, 0.33000000000000002, 0
5, 0.20000000000000001, 0, 0.20000000000000001, 0
7, 0.14000000000000001, 0, 0.14000000000000001, 0
9, 0.11, 0, 0.11, 0
11, 0.089999999999999997, 0, 0.089999999999999997, 0
13, 0.070000000000000007, 0, 0.070000000000000007, 0

New Spectrum.defaultload
~ NumHarm=7
~ harmonic=(1, 3, 5, 7, 9, 11, 13, )
~ %mag=(100, 1.5, 20, 14.000000000000002, 1, 9, 7.0000000000000009, )
~ angle=(0, 180, 180, 180, 180, 180, 180, )
~ CSVFile=
~ like=
Multiplier Array:
Harmonic, Mult.re, Mult.im, Mag,  Angle
1, 1, 0, 1, 0
3, -0.014999999999999999, -2.5351102833181919E-12, 0.014999999999999999, -179.99999998064504
5, -0.20000000000000001, -3.3801470444242561E-11, 0.20000000000000001, -179.99999998064504
7, -0.14000000000000001, -2.3661029310969793E-11, 0.14000000000000001, -179.99999998064504
9, -0.01, -1.690073522212128E-12, 0.01, -179.99999998064504
11, -0.089999999999999997, -1.5210661699909151E-11, 0.089999999999999997, -179.99999998064504
13, -0.070000000000000007, -1.1830514655484897E-11, 0.070000000000000007, -179.99999998064504

New Spectrum.defaultgen
~ NumHarm=7
~ harmonic=(1, 3, 5, 7, 9, 11, 13, )
~ %mag=(100, 5, 3, 1.5, 1, 0.69999999999999996, 0.5, )
~ angle=(0, 0, 0, 0, 0, 0, 0, )
~ CSVFile=
~ like=
Multiplier Array:
Harmonic, Mult.re, Mult.im, Mag,  Angle
1, 1, 0, 1, 0
3, 0.050000000000000003, 0, 0.050000000000000003, 0
5, 0.029999999999999999, 0, 0.029999999999999999, 0
7, 0.014999999999999999, 0, 0.014999999999999999, 0
9, 0.01, 0, 0.01, 0
11, 0.0069999999999999993, 0, 0.0069999999999999993, 0
13, 0.0050000000000000001, 0, 0.0050000000000000001, 0

New Spectrum.defaultvsource
~ NumHarm=1
~ harmonic=(1, )
~ %mag=(100, )
~ angle=(0, )
~ CSVFile=
~ like=
Multiplier Array:
Harmonic, Mult.re, Mult.im, Mag,  Angle
1, 1, 0, 1, 0

New Spectrum.linear
~ NumHarm=1
~ harmonic=(1, )
~ %mag=(100, )
~ angle=(0, )
~ CSVFile=
~ like=
Multiplier Array:
Harmonic, Mult.re, Mult.im, Mag,  Angle
1, 1, 0, 1, 0

New Spectrum.pwm6
~ NumHarm=13
~ harmonic=(1, 3, 5, 7, 9, 11, 13, 15, 17, 19, 21, 23, 25, )
~ %mag=(100, 4.4000000000000004, 76.5, 62.700000000000003, 2.8999999999999999, 24.800000000000001, 12.699999999999999, 0.5, 7.0999999999999996, 8.4000000000000004, 0.90000000000000013, 4.4000000000000004, 3.3000000000000003, )
~ angle=(-103, -5, 28, -180, -33, -59, 79, 36, -253, -124, 3, -30, 86, )
~ CSVFile=
~ like=
Multiplier Array:
Harmonic, Mult.re, Mult.im, Mag,  Angle
1, 1, 0, 1, 0
3, 0.024604487763124828, -0.036477653185398876, 0.044000000000000004, -55.99999998063322
5, -0.76395159406683666, -0.040037006915343148, 0.76500000000000001, -176.99999996127832
7, -0.62690450485749882, -0.010942659154619313, 0.627, -178.99999996127829
9, -0.028841134968224425, 0.0030313254105526436, 0.028999999999999998, 174.00000003874541
11, 0.2466414300774728, -0.025923058641662861, 0.248, -5.9999999418996959
13, 0.11775234959332352, -0.047575037207045069, 0.127, -21.999999922532734
15, -0.0038857298119558173, 0.0031466019494810283, 0.0050000000000000001, 141.00000007747903
17, 0.037624267675869245, 0.060211414880025363, 0.070999999999999994, 58.000000077467206
19, 0.070448327628677809, 0.045749679062507889, 0.084000000000000005, 33.000000096834029
21, 0.0089506970564012245, 0.00094075618761210766, 0.0090000000000000011, 6.0000001162008871
23, -0.04399329858856766, 0.00076790578662450017, 0.044000000000000004, 179.00000011621248
25, -0.02564581677996754, 0.020767572840568911, 0.033000000000000002, 141.00000013557926

New Spectrum.dc6
~ NumHarm=10
~ harmonic=(1, 3, 5, 7, 9, 11, 13, 15, 17, 19, )
~ %mag=(100, 1.2, 33.600000000000001, 1.6000000000000001, 0.40000000000000002, 8.6999999999999993, 1.2, 0.29999999999999999, 4.5, 1.3, )
~ angle=(-75, 28, 156, 29, -91, 49, 54, 148, -57, -46, )
~ CSVFile=
~ like=
Multiplier Array:
Harmonic, Mult.re, Mult.im, Mag,  Angle
1, 1, 0, 1, 0
3, -0.0035084604539468082, -0.011475657072389858, 0.012, -106.99999998064504
5, -0.33186328246617214, 0.052561980088060296, 0.33600000000000002, 171.0000000193786
7, -0.015524731618402513, -0.0038707503376701159, 0.016, -165.99999996127832
9, -0.0028773591998309841, -0.0027786334834137448, 0.0040000000000000001, -135.99999996127826
11, -0.078195082059324669, 0.038138289706481067, 0.086999999999999994, 154.00000003874538
13, 0.0075518447016082015, -0.0093257515301873734, 0.012, -50.999999941899581
15, -0.002923110193549083, -0.00067485316652546139, 0.0030000000000000001, -166.99999992254467
17, -0.033441517180917944, 0.030110877247904445, 0.044999999999999991, 138.00000005811214
19, 0.0063025250779241522, -0.011370056184651737, 0.013000000000000001, -60.999999922532723

New TCC_Curve.a
~ npts=5
~ C_array=[ 1 2.5 4.5 8 14]
~ T_array=[ 0.15 0.07 0.05 0.045 0.045]
~ like=

New TCC_Curve.d
~ npts=5
~ C_array=[ 1 2.5 4.5 8 14]
~ T_array=[ 6 0.7 0.2 0.06 0.02]
~ like=

New TCC_Curve.tlink
~ npts=7
~ C_array=[ 2 2.1 3 4 6 22 50]
~ T_array=[ 300 100 10.1 4 1.4 0.1 0.02]
~ like=

New TCC_Curve.klink
~ npts=6
~ C_array=[ 2 2.2 3 4 6 30]
~ T_array=[ 300 20 4 1.3 0.41 0.02]
~ like=

New TCC_Curve.uv1547
~ npts=2
~ C_array=[ 0.5 0.9]
~ T_array=[ 0.166 2]
~ like=

New TCC_Curve.ov1547
~ npts=2
~ C_array=[ 1.1 1.2]
~ T_array=[ 2 0.166]
~ like=

New TCC_Curve.mod_inv
~ npts=15
~ C_array=[ 1.1 1.3 1.5 2 3 4 5 6 7 8 9 10 20 50 100]
~ T_array=[ 27.1053 9.9029 6.439 3.8032 2.4322 1.9458 1.6883 1.5255 1.4117 1.3267 1.2604 1.2068 0.9481 0.7468 0.6478]
~ like=

New TCC_Curve.very_inv
~ npts=15
~ C_array=[ 1.1 1.3 1.5 2 3 4 5 6 7 8 9 10 20 50 100]
~ T_array=[ 93.872 28.9113 16.179 7.0277 2.9423 1.7983 1.3081 1.0513 0.8995 0.8023 0.7361 0.6891 0.5401 0.4988 0.493]
~ like=

New TCC_Curve.ext_inv
~ npts=15
~ C_array=[ 1.1 1.3 1.5 2 3 4 5 6 7 8 9 10 20 50 100]
~ T_array=[ 134.407 40.9913 22.6817 9.5217 3.6467 2.0017 1.2967 0.9274 0.7092 0.5693 0.4742 0.4065 0.1924 0.133 0.1245]
~ like=

New TCC_Curve.definite
~ npts=3
~ C_array=[ 1 1.001 100]
~ T_array=[ 300 1 1]
~ like=

New LineCode.zabcn
~ nphases=4
~ r1=0.05800
~ x1=0.12060
~ r0=0.17840
~ x0=0.40470
~ C1=3.40000
~ C0=1.60000
~ units=km
~ rmatrix="0.22721762 0.05921762 0.05921762 0.05921762 |0.05921762 0.22721762 0.05921762 0.05921762 |0.05921762 0.05921762 0.22721762 0.05921762 |0.05921762 0.05921762 0.05921762 0.22721762 |"
~ xmatrix="0.87932601 0.54106971 0.47554580 0.44914116 |0.54106971 0.87932601 0.51653344 0.47554580 |0.47554580 0.51653344 0.87932601 0.54106971 |0.44914116 0.47554580 0.54106971 0.87932601 |"
~ cmatrix="0.00000000 0.00000000 0.00000000 0.00000000 |0.00000000 0.00000000 0.00000000 0.00000000 |0.00000000 0.00000000 0.00000000 0.00000000 |0.00000000 0.00000000 0.00000000 0.00000000 |"
~ baseFreq=60
~ normamps=400
~ emergamps=600
~ faultrate=0.1
~ pctperm=20
~ repair=3
~ Kron=N
~ Rg=0
~ Xg=0
~ rho=100
~ neutral=4
~ Seasons=1
! OPTIONS
! NumNodes = 7
Set Mode=Snap
Set ControlMode=STATIC
Set Random=Gaussian
Set hour=0
Set sec=0
Set year=0
Set frequency=60
Set stepsize=0.001
Set number=100
Set circuit=test
Set editor=open -t
Set tolerance=1.0000000000000001E-9
Set maxiterations=15
Set miniterations=2
Set loadmodel=PowerFlow
Set loadmult=1
Set Normvminpu=0.94999999999999996
Set Normvmaxpu=1.05
Set Emergvminpu=0.90000000000000002
Set Emergvmaxpu=1.0800000000000001
Set %mean=82.58
Set %stddev=15.31
Set LDCurve=
Set %growth=2.5
Set genkw=1000
Set genpf=1
Set capkvar=600
Set addtype=generator
Set allowduplicates=No
Set zonelock=No
Set ueweight=    1.00
Set lossweight=    1.00
Set ueregs=[10]
Set lossregs=[13]
Set voltagebases=(      0.40)
Set algorithm=normal
Set Trapezoidal=no
Set genmult=1
Set Basefrequency=60
Set harmonics=(ALL)
Set maxcontroliter=10

System Y Matrix (Lower Triangle by Columns)

  Row  Col               G               B

[   1,   1] =    1.6681E10 + j  -6.0148E10
[   2,   1] =     1.5223E9 + j    4.8586E8
[   3,   1] =     1.5223E9 + j    4.8586E8
[   4,   1] =     -0.73092 + j      1.7204
[   5,   1] =      0.39994 + j    -0.60594
[   6,   1] =      0.13552 + j    -0.36071
[   7,   1] =      0.10437 + j     -0.3153
[   1,   2] =     1.5223E9 + j    4.8586E8
[   2,   2] =    1.6681E10 + j  -6.0148E10
[   3,   2] =     1.5223E9 + j    4.8586E8
[   4,   2] =      0.39994 + j    -0.60594
[   5,   2] =      -0.8457 + j       1.817
[   6,   2] =      0.26154 + j    -0.47098
[   7,   2] =      0.13552 + j    -0.36071
[   1,   3] =     1.5223E9 + j    4.8586E8
[   2,   3] =     1.5223E9 + j    4.8586E8
[   3,   3] =    1.6681E10 + j  -6.0148E10
[   4,   3] =      0.13552 + j    -0.36071
[   5,   3] =      0.26154 + j    -0.47098
[   6,   3] =      -0.8457 + j       1.817
[   7,   3] =      0.39994 + j    -0.60594
[   1,   4] =     -0.73092 + j      1.7204
[   2,   4] =      0.39994 + j    -0.60594
[   3,   4] =      0.13552 + j    -0.36071
[   4,   4] =      0.78717 + j     -1.7477
[   5,   4] =     -0.39994 + j     0.60594
[   6,   4] =     -0.13552 + j     0.36071
[   7,   4] =     -0.16062 + j     0.34255
[   1,   5] =      0.39994 + j    -0.60594
[   2,   5] =      -0.8457 + j       1.817
[   3,   5] =      0.26154 + j    -0.47098
[   4,   5] =     -0.39994 + j     0.60594
[   5,   5] =      0.90195 + j     -1.8442
[   6,   5] =     -0.26154 + j     0.47098
[   7,   5] =     -0.19177 + j     0.38795
[   1,   6] =      0.13552 + j    -0.36071
[   2,   6] =      0.26154 + j    -0.47098
[   3,   6] =      -0.8457 + j       1.817
[   4,   6] =     -0.13552 + j     0.36071
[   5,   6] =     -0.26154 + j     0.47098
[   6,   6] =      0.90195 + j     -1.8442
[   7,   6] =     -0.45619 + j     0.63318
[   1,   7] =      0.10437 + j     -0.3153
[   2,   7] =      0.13552 + j    -0.36071
[   3,   7] =      0.39994 + j    -0.60594
[   4,   7] =     -0.16062 + j     0.34255
[   5,   7] =     -0.19177 + j     0.38795
[   6,   7] =     -0.45619 + j     0.63318
[   7,   7] =      0.89967 + j     -1.8022
